Version 4
SHEET 1 2972 1620
WIRE 1888 144 1760 144
WIRE 1888 160 1888 144
WIRE 1760 240 1760 144
WIRE 1888 272 1888 240
WIRE 2000 272 1888 272
WIRE 1888 304 1888 272
WIRE 2304 368 2240 368
WIRE 1568 400 1472 400
WIRE 1760 400 1760 320
WIRE 1824 400 1760 400
WIRE 1888 400 1888 384
WIRE 1888 400 1824 400
WIRE 2304 400 2304 368
WIRE 1568 416 1568 400
WIRE 1472 432 1472 400
WIRE 1824 432 1824 400
WIRE 1424 448 1392 448
WIRE 2880 448 2384 448
WIRE 1392 464 1392 448
WIRE 1424 496 1280 496
WIRE 2240 496 2240 368
WIRE 2240 496 2176 496
WIRE 1568 512 1472 512
WIRE 1824 512 1648 512
WIRE 2304 528 2304 480
WIRE 2304 528 2176 528
WIRE 2800 528 2576 528
WIRE 2880 528 2880 448
WIRE 2880 528 2800 528
WIRE 2000 544 2000 272
WIRE 2048 544 2000 544
WIRE 2800 544 2800 528
WIRE 2240 560 2176 560
WIRE 2304 560 2304 528
WIRE 1696 576 1648 576
WIRE 1824 576 1824 512
WIRE 1824 576 1776 576
WIRE 2496 576 2448 576
WIRE 2672 576 2592 576
WIRE 1648 608 1648 576
WIRE 1824 608 1824 576
WIRE 2240 640 2240 560
WIRE 2384 640 2384 448
WIRE 2384 640 2240 640
WIRE 2672 656 2672 576
WIRE 2800 656 2800 624
WIRE 2800 656 2672 656
WIRE 2672 688 2672 656
WIRE 1648 720 1648 688
WIRE 1824 720 1824 672
WIRE 1824 720 1648 720
WIRE 1824 752 1824 720
WIRE 2448 848 2448 576
WIRE 2576 848 2448 848
WIRE 2736 848 2656 848
WIRE 2800 848 2736 848
WIRE 2736 880 2736 848
WIRE 2736 1008 2736 960
FLAG 1824 752 0
FLAG 1824 432 0
FLAG 2304 560 0
FLAG 2672 768 0
FLAG 2800 848 BSPD_OK
IOPIN 2800 848 Out
FLAG 2736 1008 0
FLAG 1824 512 VCAP
FLAG 1392 464 0
FLAG 1568 416 0
FLAG 1280 576 0
DATAFLAG 1824 752 ""
DATAFLAG 1760 352 ""
SYMBOL voltage 1648 592 R0
SYMATTR InstName V15
SYMATTR Value 5
SYMBOL res 1664 496 R90
WINDOW 0 0 56 VBottom 2
WINDOW 3 32 56 VTop 2
SYMATTR InstName R11
SYMATTR Value 330
SYMBOL res 1680 592 R270
WINDOW 0 32 56 VTop 2
WINDOW 3 0 56 VBottom 2
SYMATTR InstName R12
SYMATTR Value 680000
SYMBOL cap 1808 608 R0
SYMATTR InstName C1
SYMATTR Value 0.47µ
SYMBOL voltage 1760 224 R0
SYMATTR InstName V16
SYMATTR Value 5
SYMBOL res 1872 144 R0
SYMATTR InstName R13
SYMATTR Value 4k
SYMBOL res 1872 288 R0
SYMATTR InstName R14
SYMATTR Value 12k
SYMBOL voltage 2304 384 R0
SYMATTR InstName V17
SYMATTR Value 12
SYMBOL voltage 2672 672 R0
SYMATTR InstName V18
SYMATTR Value 12
SYMBOL res 2784 528 R0
SYMATTR InstName R15
SYMATTR Value 10k
SYMBOL res 2672 832 R90
WINDOW 0 0 56 VBottom 2
WINDOW 3 32 56 VTop 2
SYMATTR InstName R16
SYMATTR Value 68
SYMBOL AutoGenerated\\OPA2990 2112 528 R0
SYMATTR InstName U17
SYMBOL pmos 2496 528 M90
SYMATTR InstName M1
SYMATTR Value RRR040P03
SYMBOL res 2720 864 R0
SYMATTR InstName R17
SYMATTR Value 10k
SYMBOL sw 1472 416 R0
SYMATTR InstName S1
SYMATTR Value MYSW
SYMBOL voltage 1280 480 R0
WINDOW 123 0 0 Left 0
WINDOW 39 0 0 Left 0
SYMATTR InstName V1
SYMATTR Value PWL(0m 1 100m 1 101m 0)
TEXT 1984 736 Left 2 !.tran 2000m
TEXT 1064 336 Left 2 !.model MYSW SW(Ron=1 Roff=1000Meg Vt=0.5 Vh=0.01)
